<?xml version="1.0" encoding="UTF-8"?>

<routes xmlns:xsi="http://www.w3.org/2001/XMLSchema-instance"
        xsi:noNamespaceSchemaLocation="http://sumo.dlr.de/xsd/routes_file.xsd">

    <!-- =========================================================== -->
    <!-- 交通流量配置文件 (进口道比例扰动±100%，转向和流量扰动±20%) -->
    <!-- 扰动类型：时段总流量、进口道比例、转向比例 -->
    <!-- 随机种子：1000 -->
    <!-- =========================================================== -->

    <!-- =========================================================== -->
    <!-- 第1小时：低流时段 (扰动配置：进口道±100%，其他±20%) -->
    <!-- =========================================================== -->
    <!-- 基础流量：1080 veh/h (30%饱和度) -->
    <!-- 扰动后流量：1143 veh/h (乘数：1.059) -->
    <!-- 变化：+5.8% -->

    <!-- E1入口：242 veh/h (21.3%) -->
    <flow id="h1_E1_S" begin="0" end="3600" from="E1" to="E7" vehsPerHour="98" />  <!-- 直行：40.7% (基准：45.0%，变化：-9.6%) -->
    <flow id="h1_E1_L" begin="0" end="3600" from="E1" to="E8" vehsPerHour="71" />  <!-- 左转：29.4% (基准：30.0%，变化：-2.1%) -->
    <flow id="h1_E1_R" begin="0" end="3600" from="E1" to="E6" vehsPerHour="72" />  <!-- 右转：29.9% (基准：25.0%，变化：+19.8%) -->

    <!-- E3入口：552 veh/h (48.3%) -->
    <flow id="h1_E3_S" begin="0" end="3600" from="E3" to="E5" vehsPerHour="251" />  <!-- 直行：45.5% (基准：45.0%，变化：+1.1%) -->
    <flow id="h1_E3_L" begin="0" end="3600" from="E3" to="E6" vehsPerHour="167" />  <!-- 左转：30.4% (基准：30.0%，变化：+1.4%) -->
    <flow id="h1_E3_R" begin="0" end="3600" from="E3" to="E8" vehsPerHour="132" />  <!-- 右转：24.1% (基准：25.0%，变化：-3.7%) -->

    <!-- E2入口：102 veh/h (9.0%) -->
    <flow id="h1_E2_S" begin="0" end="3600" from="E2" to="E8" vehsPerHour="42" />  <!-- 直行：41.9% (基准：45.0%，变化：-6.8%) -->
    <flow id="h1_E2_L" begin="0" end="3600" from="E2" to="E5" vehsPerHour="32" />  <!-- 左转：31.5% (基准：30.0%，变化：+5.1%) -->
    <flow id="h1_E2_R" begin="0" end="3600" from="E2" to="E7" vehsPerHour="27" />  <!-- 右转：26.5% (基准：25.0%，变化：+6.2%) -->

    <!-- E4入口：244 veh/h (21.4%) -->
    <flow id="h1_E4_S" begin="0" end="3600" from="E4" to="E6" vehsPerHour="113" />  <!-- 直行：46.6% (基准：45.0%，变化：+3.5%) -->
    <flow id="h1_E4_L" begin="0" end="3600" from="E4" to="E7" vehsPerHour="69" />  <!-- 左转：28.6% (基准：30.0%，变化：-4.6%) -->
    <flow id="h1_E4_R" begin="0" end="3600" from="E4" to="E5" vehsPerHour="60" />  <!-- 右转：24.8% (基准：25.0%，变化：-0.8%) -->

    <!-- 流量验证 -->
    <!-- 目标流量：1143 veh/h -->
    <!-- 生成流量：1140 veh/h -->
    <!-- 差值：3 veh/h (因四舍五入产生) -->

    <!-- =========================================================== -->
    <!-- 第2小时：中流时段 (扰动配置：进口道±100%，其他±20%) -->
    <!-- =========================================================== -->
    <!-- 基础流量：2160 veh/h (60%饱和度) -->
    <!-- 扰动后流量：2235 veh/h (乘数：1.035) -->
    <!-- 变化：+3.5% -->

    <!-- E1入口：443 veh/h (19.8%) -->
    <flow id="h2_E1_S" begin="3600" end="7200" from="E1" to="E7" vehsPerHour="191" />  <!-- 直行：43.3% (基准：45.0%，变化：-3.8%) -->
    <flow id="h2_E1_L" begin="3600" end="7200" from="E1" to="E8" vehsPerHour="131" />  <!-- 左转：29.7% (基准：30.0%，变化：-0.9%) -->
    <flow id="h2_E1_R" begin="3600" end="7200" from="E1" to="E6" vehsPerHour="119" />  <!-- 右转：27.0% (基准：25.0%，变化：+7.8%) -->

    <!-- E3入口：711 veh/h (31.8%) -->
    <flow id="h2_E3_S" begin="3600" end="7200" from="E3" to="E5" vehsPerHour="326" />  <!-- 直行：46.0% (基准：45.0%，变化：+2.1%) -->
    <flow id="h2_E3_L" begin="3600" end="7200" from="E3" to="E6" vehsPerHour="237" />  <!-- 左转：33.4% (基准：30.0%，变化：+11.5%) -->
    <flow id="h2_E3_R" begin="3600" end="7200" from="E3" to="E8" vehsPerHour="146" />  <!-- 右转：20.6% (基准：25.0%，变化：-17.6%) -->

    <!-- E2入口：551 veh/h (24.7%) -->
    <flow id="h2_E2_S" begin="3600" end="7200" from="E2" to="E8" vehsPerHour="242" />  <!-- 直行：44.0% (基准：45.0%，变化：-2.3%) -->
    <flow id="h2_E2_L" begin="3600" end="7200" from="E2" to="E5" vehsPerHour="170" />  <!-- 左转：31.0% (基准：30.0%，变化：+3.2%) -->
    <flow id="h2_E2_R" begin="3600" end="7200" from="E2" to="E7" vehsPerHour="138" />  <!-- 右转：25.1% (基准：25.0%，变化：+0.3%) -->

    <!-- E4入口：528 veh/h (23.6%) -->
    <flow id="h2_E4_S" begin="3600" end="7200" from="E4" to="E6" vehsPerHour="241" />  <!-- 直行：45.8% (基准：45.0%，变化：+1.7%) -->
    <flow id="h2_E4_L" begin="3600" end="7200" from="E4" to="E7" vehsPerHour="154" />  <!-- 左转：29.4% (基准：30.0%，变化：-2.2%) -->
    <flow id="h2_E4_R" begin="3600" end="7200" from="E4" to="E5" vehsPerHour="131" />  <!-- 右转：24.9% (基准：25.0%，变化：-0.5%) -->

    <!-- 流量验证 -->
    <!-- 目标流量：2235 veh/h -->
    <!-- 生成流量：2233 veh/h -->
    <!-- 差值：2 veh/h (因四舍五入产生) -->

    <!-- =========================================================== -->
    <!-- 第3小时：高流时段 (扰动配置：进口道±100%，其他±20%) -->
    <!-- =========================================================== -->
    <!-- 基础流量：2880 veh/h (80%饱和度) -->
    <!-- 扰动后流量：2949 veh/h (乘数：1.024) -->
    <!-- 变化：+2.4% -->

    <!-- E1入口：756 veh/h (25.7%) -->
    <flow id="h3_E1_S" begin="7200" end="10800" from="E1" to="E7" vehsPerHour="315" />  <!-- 直行：41.8% (基准：45.0%，变化：-7.2%) -->
    <flow id="h3_E1_L" begin="7200" end="10800" from="E1" to="E8" vehsPerHour="253" />  <!-- 左转：33.6% (基准：30.0%，变化：+11.8%) -->
    <flow id="h3_E1_R" begin="7200" end="10800" from="E1" to="E6" vehsPerHour="186" />  <!-- 右转：24.7% (基准：25.0%，变化：-1.2%) -->

    <!-- E3入口：749 veh/h (25.4%) -->
    <flow id="h3_E3_S" begin="7200" end="10800" from="E3" to="E5" vehsPerHour="311" />  <!-- 直行：41.6% (基准：45.0%，变化：-7.6%) -->
    <flow id="h3_E3_L" begin="7200" end="10800" from="E3" to="E6" vehsPerHour="236" />  <!-- 左转：31.5% (基准：30.0%，变化：+5.1%) -->
    <flow id="h3_E3_R" begin="7200" end="10800" from="E3" to="E8" vehsPerHour="201" />  <!-- 右转：26.9% (基准：25.0%，变化：+7.6%) -->

    <!-- E2入口：771 veh/h (26.2%) -->
    <flow id="h3_E2_S" begin="7200" end="10800" from="E2" to="E8" vehsPerHour="310" />  <!-- 直行：40.2% (基准：45.0%，变化：-10.6%) -->
    <flow id="h3_E2_L" begin="7200" end="10800" from="E2" to="E5" vehsPerHour="248" />  <!-- 左转：32.2% (基准：30.0%，变化：+7.3%) -->
    <flow id="h3_E2_R" begin="7200" end="10800" from="E2" to="E7" vehsPerHour="212" />  <!-- 右转：27.6% (基准：25.0%，变化：+10.2%) -->

    <!-- E4入口：671 veh/h (22.8%) -->
    <flow id="h3_E4_S" begin="7200" end="10800" from="E4" to="E6" vehsPerHour="286" />  <!-- 直行：42.7% (基准：45.0%，变化：-5.1%) -->
    <flow id="h3_E4_L" begin="7200" end="10800" from="E4" to="E7" vehsPerHour="199" />  <!-- 左转：29.8% (基准：30.0%，变化：-0.8%) -->
    <flow id="h3_E4_R" begin="7200" end="10800" from="E4" to="E5" vehsPerHour="184" />  <!-- 右转：27.5% (基准：25.0%，变化：+10.1%) -->

    <!-- 流量验证 -->
    <!-- 目标流量：2949 veh/h -->
    <!-- 生成流量：2947 veh/h -->
    <!-- 差值：2 veh/h (因四舍五入产生) -->

</routes>