<?xml version="1.0" encoding="UTF-8"?>

<routes xmlns:xsi="http://www.w3.org/2001/XMLSchema-instance"
        xsi:noNamespaceSchemaLocation="http://sumo.dlr.de/xsd/routes_file.xsd">

    <!-- =========================================================== -->
    <!-- 交通流量配置文件 (进口道比例扰动±100%，转向和流量扰动±20%) -->
    <!-- 扰动类型：时段总流量、进口道比例、转向比例 -->
    <!-- 随机种子：3002 -->
    <!-- =========================================================== -->

    <!-- =========================================================== -->
    <!-- 第1小时：低流时段 (扰动配置：进口道±100%，其他±20%) -->
    <!-- =========================================================== -->
    <!-- 基础流量：1080 veh/h (30%饱和度) -->
    <!-- 扰动后流量：1023 veh/h (乘数：0.948) -->
    <!-- 变化：-5.3% -->

    <!-- E1入口：55 veh/h (5.4%) -->
    <flow id="h1_E1_S" begin="0" end="3600" from="E1" to="E7" vehsPerHour="24" />  <!-- 直行：44.6% (基准：45.0%，变化：-0.9%) -->
    <flow id="h1_E1_L" begin="0" end="3600" from="E1" to="E8" vehsPerHour="13" />  <!-- 左转：24.1% (基准：30.0%，变化：-19.5%) -->
    <flow id="h1_E1_R" begin="0" end="3600" from="E1" to="E6" vehsPerHour="17" />  <!-- 右转：31.2% (基准：25.0%，变化：+25.0%) -->

    <!-- E3入口：369 veh/h (36.1%) -->
    <flow id="h1_E3_S" begin="0" end="3600" from="E3" to="E5" vehsPerHour="191" />  <!-- 直行：51.9% (基准：45.0%，变化：+15.4%) -->
    <flow id="h1_E3_L" begin="0" end="3600" from="E3" to="E6" vehsPerHour="90" />  <!-- 左转：24.6% (基准：30.0%，变化：-17.9%) -->
    <flow id="h1_E3_R" begin="0" end="3600" from="E3" to="E8" vehsPerHour="86" />  <!-- 右转：23.5% (基准：25.0%，变化：-6.2%) -->

    <!-- E2入口：377 veh/h (36.9%) -->
    <flow id="h1_E2_S" begin="0" end="3600" from="E2" to="E8" vehsPerHour="183" />  <!-- 直行：48.7% (基准：45.0%，变化：+8.3%) -->
    <flow id="h1_E2_L" begin="0" end="3600" from="E2" to="E5" vehsPerHour="98" />  <!-- 左转：26.2% (基准：30.0%，变化：-12.7%) -->
    <flow id="h1_E2_R" begin="0" end="3600" from="E2" to="E7" vehsPerHour="94" />  <!-- 右转：25.1% (基准：25.0%，变化：+0.3%) -->

    <!-- E4入口：221 veh/h (21.6%) -->
    <flow id="h1_E4_S" begin="0" end="3600" from="E4" to="E6" vehsPerHour="106" />  <!-- 直行：48.1% (基准：45.0%，变化：+6.9%) -->
    <flow id="h1_E4_L" begin="0" end="3600" from="E4" to="E7" vehsPerHour="65" />  <!-- 左转：29.5% (基准：30.0%，变化：-1.6%) -->
    <flow id="h1_E4_R" begin="0" end="3600" from="E4" to="E5" vehsPerHour="49" />  <!-- 右转：22.4% (基准：25.0%，变化：-10.5%) -->

    <!-- 流量验证 -->
    <!-- 目标流量：1023 veh/h -->
    <!-- 生成流量：1022 veh/h -->
    <!-- 差值：1 veh/h (因四舍五入产生) -->

    <!-- =========================================================== -->
    <!-- 第2小时：中流时段 (扰动配置：进口道±100%，其他±20%) -->
    <!-- =========================================================== -->
    <!-- 基础流量：2160 veh/h (60%饱和度) -->
    <!-- 扰动后流量：2065 veh/h (乘数：0.956) -->
    <!-- 变化：-4.4% -->

    <!-- E1入口：295 veh/h (14.3%) -->
    <flow id="h2_E1_S" begin="3600" end="7200" from="E1" to="E7" vehsPerHour="132" />  <!-- 直行：44.8% (基准：45.0%，变化：-0.4%) -->
    <flow id="h2_E1_L" begin="3600" end="7200" from="E1" to="E8" vehsPerHour="88" />  <!-- 左转：29.9% (基准：30.0%，变化：-0.4%) -->
    <flow id="h2_E1_R" begin="3600" end="7200" from="E1" to="E6" vehsPerHour="74" />  <!-- 右转：25.3% (基准：25.0%，变化：+1.2%) -->

    <!-- E3入口：271 veh/h (13.1%) -->
    <flow id="h2_E3_S" begin="3600" end="7200" from="E3" to="E5" vehsPerHour="118" />  <!-- 直行：43.7% (基准：45.0%，变化：-3.0%) -->
    <flow id="h2_E3_L" begin="3600" end="7200" from="E3" to="E6" vehsPerHour="84" />  <!-- 左转：31.1% (基准：30.0%，变化：+3.6%) -->
    <flow id="h2_E3_R" begin="3600" end="7200" from="E3" to="E8" vehsPerHour="68" />  <!-- 右转：25.3% (基准：25.0%，变化：+1.1%) -->

    <!-- E2入口：746 veh/h (36.2%) -->
    <flow id="h2_E2_S" begin="3600" end="7200" from="E2" to="E8" vehsPerHour="340" />  <!-- 直行：45.6% (基准：45.0%，变化：+1.3%) -->
    <flow id="h2_E2_L" begin="3600" end="7200" from="E2" to="E5" vehsPerHour="222" />  <!-- 左转：29.9% (基准：30.0%，变化：-0.4%) -->
    <flow id="h2_E2_R" begin="3600" end="7200" from="E2" to="E7" vehsPerHour="182" />  <!-- 右转：24.5% (基准：25.0%，变化：-1.9%) -->

    <!-- E4入口：751 veh/h (36.4%) -->
    <flow id="h2_E4_S" begin="3600" end="7200" from="E4" to="E6" vehsPerHour="329" />  <!-- 直行：43.8% (基准：45.0%，变化：-2.6%) -->
    <flow id="h2_E4_L" begin="3600" end="7200" from="E4" to="E7" vehsPerHour="229" />  <!-- 左转：30.6% (基准：30.0%，变化：+1.9%) -->
    <flow id="h2_E4_R" begin="3600" end="7200" from="E4" to="E5" vehsPerHour="192" />  <!-- 右转：25.6% (基准：25.0%，变化：+2.5%) -->

    <!-- 流量验证 -->
    <!-- 目标流量：2065 veh/h -->
    <!-- 生成流量：2063 veh/h -->
    <!-- 差值：2 veh/h (因四舍五入产生) -->

    <!-- =========================================================== -->
    <!-- 第3小时：高流时段 (扰动配置：进口道±100%，其他±20%) -->
    <!-- =========================================================== -->
    <!-- 基础流量：2880 veh/h (80%饱和度) -->
    <!-- 扰动后流量：2765 veh/h (乘数：0.960) -->
    <!-- 变化：-4.0% -->

    <!-- E1入口：791 veh/h (28.6%) -->
    <flow id="h3_E1_S" begin="7200" end="10800" from="E1" to="E7" vehsPerHour="365" />  <!-- 直行：46.2% (基准：45.0%，变化：+2.7%) -->
    <flow id="h3_E1_L" begin="7200" end="10800" from="E1" to="E8" vehsPerHour="229" />  <!-- 左转：29.1% (基准：30.0%，变化：-3.1%) -->
    <flow id="h3_E1_R" begin="7200" end="10800" from="E1" to="E6" vehsPerHour="195" />  <!-- 右转：24.7% (基准：25.0%，变化：-1.2%) -->

    <!-- E3入口：624 veh/h (22.6%) -->
    <flow id="h3_E3_S" begin="7200" end="10800" from="E3" to="E5" vehsPerHour="291" />  <!-- 直行：46.8% (基准：45.0%，变化：+4.0%) -->
    <flow id="h3_E3_L" begin="7200" end="10800" from="E3" to="E6" vehsPerHour="156" />  <!-- 左转：25.1% (基准：30.0%，变化：-16.2%) -->
    <flow id="h3_E3_R" begin="7200" end="10800" from="E3" to="E8" vehsPerHour="175" />  <!-- 右转：28.1% (基准：25.0%，变化：+12.3%) -->

    <!-- E2入口：655 veh/h (23.7%) -->
    <flow id="h3_E2_S" begin="7200" end="10800" from="E2" to="E8" vehsPerHour="313" />  <!-- 直行：47.9% (基准：45.0%，变化：+6.5%) -->
    <flow id="h3_E2_L" begin="7200" end="10800" from="E2" to="E5" vehsPerHour="187" />  <!-- 左转：28.6% (基准：30.0%，变化：-4.8%) -->
    <flow id="h3_E2_R" begin="7200" end="10800" from="E2" to="E7" vehsPerHour="154" />  <!-- 右转：23.5% (基准：25.0%，变化：-5.9%) -->

    <!-- E4入口：693 veh/h (25.1%) -->
    <flow id="h3_E4_S" begin="7200" end="10800" from="E4" to="E6" vehsPerHour="309" />  <!-- 直行：44.7% (基准：45.0%，变化：-0.6%) -->
    <flow id="h3_E4_L" begin="7200" end="10800" from="E4" to="E7" vehsPerHour="187" />  <!-- 左转：27.1% (基准：30.0%，变化：-9.7%) -->
    <flow id="h3_E4_R" begin="7200" end="10800" from="E4" to="E5" vehsPerHour="195" />  <!-- 右转：28.2% (基准：25.0%，变化：+12.7%) -->

    <!-- 流量验证 -->
    <!-- 目标流量：2765 veh/h -->
    <!-- 生成流量：2763 veh/h -->
    <!-- 差值：2 veh/h (因四舍五入产生) -->

</routes>