<?xml version="1.0" encoding="UTF-8"?>

<routes xmlns:xsi="http://www.w3.org/2001/XMLSchema-instance"
        xsi:noNamespaceSchemaLocation="http://sumo.dlr.de/xsd/routes_file.xsd">

    <!-- =========================================================== -->
    <!-- 交通流量配置文件 (进口道比例扰动±100%，转向和流量扰动±20%) -->
    <!-- 扰动类型：时段总流量、进口道比例、转向比例 -->
    <!-- 随机种子：1000 -->
    <!-- =========================================================== -->

    <!-- =========================================================== -->
    <!-- 第1小时：低流时段 (扰动配置：进口道±100%，其他±20%) -->
    <!-- =========================================================== -->
    <!-- 基础流量：1080 veh/h (30%饱和度) -->
    <!-- 扰动后流量：1143 veh/h (乘数：1.059) -->
    <!-- 变化：+5.8% -->

    <!-- E1入口：177 veh/h (15.5%) -->
    <flow id="h1_E1_S" begin="0" end="3600" from="E1" to="E7" vehsPerHour="72" />  <!-- 直行：40.7% (基准：45.0%，变化：-9.6%) -->
    <flow id="h1_E1_L" begin="0" end="3600" from="E1" to="E8" vehsPerHour="51" />  <!-- 左转：29.4% (基准：30.0%，变化：-2.1%) -->
    <flow id="h1_E1_R" begin="0" end="3600" from="E1" to="E6" vehsPerHour="53" />  <!-- 右转：29.9% (基准：25.0%，变化：+19.8%) -->

    <!-- E3入口：733 veh/h (64.2%) -->
    <flow id="h1_E3_S" begin="0" end="3600" from="E3" to="E5" vehsPerHour="333" />  <!-- 直行：45.5% (基准：45.0%，变化：+1.1%) -->
    <flow id="h1_E3_L" begin="0" end="3600" from="E3" to="E6" vehsPerHour="223" />  <!-- 左转：30.4% (基准：30.0%，变化：+1.4%) -->
    <flow id="h1_E3_R" begin="0" end="3600" from="E3" to="E8" vehsPerHour="176" />  <!-- 右转：24.1% (基准：25.0%，变化：-3.7%) -->

    <!-- E2入口：51 veh/h (4.5%) -->
    <flow id="h1_E2_S" begin="0" end="3600" from="E2" to="E8" vehsPerHour="21" />  <!-- 直行：41.9% (基准：45.0%，变化：-6.8%) -->
    <flow id="h1_E2_L" begin="0" end="3600" from="E2" to="E5" vehsPerHour="16" />  <!-- 左转：31.5% (基准：30.0%，变化：+5.1%) -->
    <flow id="h1_E2_R" begin="0" end="3600" from="E2" to="E7" vehsPerHour="13" />  <!-- 右转：26.5% (基准：25.0%，变化：+6.2%) -->

    <!-- E4入口：180 veh/h (15.8%) -->
    <flow id="h1_E4_S" begin="0" end="3600" from="E4" to="E6" vehsPerHour="83" />  <!-- 直行：46.6% (基准：45.0%，变化：+3.5%) -->
    <flow id="h1_E4_L" begin="0" end="3600" from="E4" to="E7" vehsPerHour="51" />  <!-- 左转：28.6% (基准：30.0%，变化：-4.6%) -->
    <flow id="h1_E4_R" begin="0" end="3600" from="E4" to="E5" vehsPerHour="44" />  <!-- 右转：24.8% (基准：25.0%，变化：-0.8%) -->

    <!-- 流量验证 -->
    <!-- 目标流量：1143 veh/h -->
    <!-- 生成流量：1141 veh/h -->
    <!-- 差值：2 veh/h (因四舍五入产生) -->

    <!-- =========================================================== -->
    <!-- 第2小时：中流时段 (扰动配置：进口道±100%，其他±20%) -->
    <!-- =========================================================== -->
    <!-- 基础流量：2160 veh/h (60%饱和度) -->
    <!-- 扰动后流量：2235 veh/h (乘数：1.035) -->
    <!-- 变化：+3.5% -->

    <!-- E1入口：318 veh/h (14.2%) -->
    <flow id="h2_E1_S" begin="3600" end="7200" from="E1" to="E7" vehsPerHour="137" />  <!-- 直行：43.3% (基准：45.0%，变化：-3.8%) -->
    <flow id="h2_E1_L" begin="3600" end="7200" from="E1" to="E8" vehsPerHour="94" />  <!-- 左转：29.7% (基准：30.0%，变化：-0.9%) -->
    <flow id="h2_E1_R" begin="3600" end="7200" from="E1" to="E6" vehsPerHour="85" />  <!-- 右转：27.0% (基准：25.0%，变化：+7.8%) -->

    <!-- E3入口：847 veh/h (37.9%) -->
    <flow id="h2_E3_S" begin="3600" end="7200" from="E3" to="E5" vehsPerHour="389" />  <!-- 直行：46.0% (基准：45.0%，变化：+2.1%) -->
    <flow id="h2_E3_L" begin="3600" end="7200" from="E3" to="E6" vehsPerHour="283" />  <!-- 左转：33.4% (基准：30.0%，变化：+11.5%) -->
    <flow id="h2_E3_R" begin="3600" end="7200" from="E3" to="E8" vehsPerHour="174" />  <!-- 右转：20.6% (基准：25.0%，变化：-17.6%) -->

    <!-- E2入口：578 veh/h (25.9%) -->
    <flow id="h2_E2_S" begin="3600" end="7200" from="E2" to="E8" vehsPerHour="254" />  <!-- 直行：44.0% (基准：45.0%，变化：-2.3%) -->
    <flow id="h2_E2_L" begin="3600" end="7200" from="E2" to="E5" vehsPerHour="178" />  <!-- 左转：31.0% (基准：30.0%，变化：+3.2%) -->
    <flow id="h2_E2_R" begin="3600" end="7200" from="E2" to="E7" vehsPerHour="144" />  <!-- 右转：25.1% (基准：25.0%，变化：+0.3%) -->

    <!-- E4入口：491 veh/h (22.0%) -->
    <flow id="h2_E4_S" begin="3600" end="7200" from="E4" to="E6" vehsPerHour="224" />  <!-- 直行：45.8% (基准：45.0%，变化：+1.7%) -->
    <flow id="h2_E4_L" begin="3600" end="7200" from="E4" to="E7" vehsPerHour="144" />  <!-- 左转：29.4% (基准：30.0%，变化：-2.2%) -->
    <flow id="h2_E4_R" begin="3600" end="7200" from="E4" to="E5" vehsPerHour="122" />  <!-- 右转：24.9% (基准：25.0%，变化：-0.5%) -->

    <!-- 流量验证 -->
    <!-- 目标流量：2235 veh/h -->
    <!-- 生成流量：2234 veh/h -->
    <!-- 差值：1 veh/h (因四舍五入产生) -->

    <!-- =========================================================== -->
    <!-- 第3小时：高流时段 (扰动配置：进口道±100%，其他±20%) -->
    <!-- =========================================================== -->
    <!-- 基础流量：2880 veh/h (80%饱和度) -->
    <!-- 扰动后流量：2949 veh/h (乘数：1.024) -->
    <!-- 变化：+2.4% -->

    <!-- E1入口：772 veh/h (26.2%) -->
    <flow id="h3_E1_S" begin="7200" end="10800" from="E1" to="E7" vehsPerHour="322" />  <!-- 直行：41.8% (基准：45.0%，变化：-7.2%) -->
    <flow id="h3_E1_L" begin="7200" end="10800" from="E1" to="E8" vehsPerHour="259" />  <!-- 左转：33.6% (基准：30.0%，变化：+11.8%) -->
    <flow id="h3_E1_R" begin="7200" end="10800" from="E1" to="E6" vehsPerHour="190" />  <!-- 右转：24.7% (基准：25.0%，变化：-1.2%) -->

    <!-- E3入口：757 veh/h (25.7%) -->
    <flow id="h3_E3_S" begin="7200" end="10800" from="E3" to="E5" vehsPerHour="314" />  <!-- 直行：41.6% (基准：45.0%，变化：-7.6%) -->
    <flow id="h3_E3_L" begin="7200" end="10800" from="E3" to="E6" vehsPerHour="238" />  <!-- 左转：31.5% (基准：30.0%，变化：+5.1%) -->
    <flow id="h3_E3_R" begin="7200" end="10800" from="E3" to="E8" vehsPerHour="203" />  <!-- 右转：26.9% (基准：25.0%，变化：+7.6%) -->

    <!-- E2入口：806 veh/h (27.4%) -->
    <flow id="h3_E2_S" begin="7200" end="10800" from="E2" to="E8" vehsPerHour="324" />  <!-- 直行：40.2% (基准：45.0%，变化：-10.6%) -->
    <flow id="h3_E2_L" begin="7200" end="10800" from="E2" to="E5" vehsPerHour="259" />  <!-- 左转：32.2% (基准：30.0%，变化：+7.3%) -->
    <flow id="h3_E2_R" begin="7200" end="10800" from="E2" to="E7" vehsPerHour="222" />  <!-- 右转：27.6% (基准：25.0%，变化：+10.2%) -->

    <!-- E4入口：612 veh/h (20.8%) -->
    <flow id="h3_E4_S" begin="7200" end="10800" from="E4" to="E6" vehsPerHour="261" />  <!-- 直行：42.7% (基准：45.0%，变化：-5.1%) -->
    <flow id="h3_E4_L" begin="7200" end="10800" from="E4" to="E7" vehsPerHour="182" />  <!-- 左转：29.8% (基准：30.0%，变化：-0.8%) -->
    <flow id="h3_E4_R" begin="7200" end="10800" from="E4" to="E5" vehsPerHour="168" />  <!-- 右转：27.5% (基准：25.0%，变化：+10.1%) -->

    <!-- 流量验证 -->
    <!-- 目标流量：2949 veh/h -->
    <!-- 生成流量：2947 veh/h -->
    <!-- 差值：2 veh/h (因四舍五入产生) -->

</routes>