<?xml version="1.0" encoding="UTF-8"?>

<routes xmlns:xsi="http://www.w3.org/2001/XMLSchema-instance"
        xsi:noNamespaceSchemaLocation="http://sumo.dlr.de/xsd/routes_file.xsd">

    <!-- =========================================================== -->
    <!-- 交通流量配置文件 (进口道比例扰动±100%，转向和流量扰动±20%) -->
    <!-- 扰动类型：时段总流量、进口道比例、转向比例 -->
    <!-- 随机种子：42 -->
    <!-- =========================================================== -->

    <!-- =========================================================== -->
    <!-- 第1小时：低流时段 (扰动配置：进口道±100%，其他±20%) -->
    <!-- =========================================================== -->
    <!-- 基础流量：1080 veh/h (30%饱和度) -->
    <!-- 扰动后流量：1094 veh/h (乘数：1.013) -->
    <!-- 变化：+1.3% -->

    <!-- E1入口：51 veh/h (4.7%) -->
    <flow id="h1_E1_S" begin="0" end="3600" from="E1" to="E7" vehsPerHour="21" />  <!-- 直行：42.6% (基准：45.0%，变化：-5.4%) -->
    <flow id="h1_E1_L" begin="0" end="3600" from="E1" to="E8" vehsPerHour="13" />  <!-- 左转：25.9% (基准：30.0%，变化：-13.6%) -->
    <flow id="h1_E1_R" begin="0" end="3600" from="E1" to="E6" vehsPerHour="16" />  <!-- 右转：31.5% (基准：25.0%，变化：+26.0%) -->

    <!-- E3入口：734 veh/h (67.1%) -->
    <flow id="h1_E3_S" begin="0" end="3600" from="E3" to="E5" vehsPerHour="329" />  <!-- 直行：44.8% (基准：45.0%，变化：-0.4%) -->
    <flow id="h1_E3_L" begin="0" end="3600" from="E3" to="E6" vehsPerHour="196" />  <!-- 左转：26.8% (基准：30.0%，变化：-10.7%) -->
    <flow id="h1_E3_R" begin="0" end="3600" from="E3" to="E8" vehsPerHour="208" />  <!-- 右转：28.4% (基准：25.0%，变化：+13.5%) -->

    <!-- E2入口：51 veh/h (4.7%) -->
    <flow id="h1_E2_S" begin="0" end="3600" from="E2" to="E8" vehsPerHour="22" />  <!-- 直行：43.7% (基准：45.0%，变化：-2.9%) -->
    <flow id="h1_E2_L" begin="0" end="3600" from="E2" to="E5" vehsPerHour="14" />  <!-- 左转：27.5% (基准：30.0%，变化：-8.5%) -->
    <flow id="h1_E2_R" begin="0" end="3600" from="E2" to="E7" vehsPerHour="14" />  <!-- 右转：28.8% (基准：25.0%，变化：+15.4%) -->

    <!-- E4入口：257 veh/h (23.5%) -->
    <flow id="h1_E4_S" begin="0" end="3600" from="E4" to="E6" vehsPerHour="124" />  <!-- 直行：48.3% (基准：45.0%，变化：+7.2%) -->
    <flow id="h1_E4_L" begin="0" end="3600" from="E4" to="E7" vehsPerHour="67" />  <!-- 左转：26.4% (基准：30.0%，变化：-12.1%) -->
    <flow id="h1_E4_R" begin="0" end="3600" from="E4" to="E5" vehsPerHour="65" />  <!-- 右转：25.4% (基准：25.0%，变化：+1.5%) -->

    <!-- 流量验证 -->
    <!-- 目标流量：1094 veh/h -->
    <!-- 生成流量：1093 veh/h -->
    <!-- 差值：1 veh/h (因四舍五入产生) -->

    <!-- =========================================================== -->
    <!-- 第2小时：中流时段 (扰动配置：进口道±100%，其他±20%) -->
    <!-- =========================================================== -->
    <!-- 基础流量：2160 veh/h (60%饱和度) -->
    <!-- 扰动后流量：2127 veh/h (乘数：0.985) -->
    <!-- 变化：-1.5% -->

    <!-- E1入口：388 veh/h (18.3%) -->
    <flow id="h2_E1_S" begin="3600" end="7200" from="E1" to="E7" vehsPerHour="170" />  <!-- 直行：44.0% (基准：45.0%，变化：-2.3%) -->
    <flow id="h2_E1_L" begin="3600" end="7200" from="E1" to="E8" vehsPerHour="109" />  <!-- 左转：28.3% (基准：30.0%，变化：-5.6%) -->
    <flow id="h2_E1_R" begin="3600" end="7200" from="E1" to="E6" vehsPerHour="107" />  <!-- 右转：27.7% (基准：25.0%，变化：+10.9%) -->

    <!-- E3入口：676 veh/h (31.8%) -->
    <flow id="h2_E3_S" begin="3600" end="7200" from="E3" to="E5" vehsPerHour="322" />  <!-- 直行：47.6% (基准：45.0%，变化：+5.9%) -->
    <flow id="h2_E3_L" begin="3600" end="7200" from="E3" to="E6" vehsPerHour="171" />  <!-- 左转：25.4% (基准：30.0%，变化：-15.5%) -->
    <flow id="h2_E3_R" begin="3600" end="7200" from="E3" to="E8" vehsPerHour="182" />  <!-- 右转：27.0% (基准：25.0%，变化：+8.0%) -->

    <!-- E2入口：439 veh/h (20.6%) -->
    <flow id="h2_E2_S" begin="3600" end="7200" from="E2" to="E8" vehsPerHour="207" />  <!-- 直行：47.2% (基准：45.0%，变化：+5.0%) -->
    <flow id="h2_E2_L" begin="3600" end="7200" from="E2" to="E5" vehsPerHour="119" />  <!-- 左转：27.2% (基准：30.0%，变化：-9.4%) -->
    <flow id="h2_E2_R" begin="3600" end="7200" from="E2" to="E7" vehsPerHour="112" />  <!-- 右转：25.6% (基准：25.0%，变化：+2.4%) -->

    <!-- E4入口：622 veh/h (29.3%) -->
    <flow id="h2_E4_S" begin="3600" end="7200" from="E4" to="E6" vehsPerHour="279" />  <!-- 直行：45.0% (基准：45.0%，变化：-0.1%) -->
    <flow id="h2_E4_L" begin="3600" end="7200" from="E4" to="E7" vehsPerHour="163" />  <!-- 左转：26.3% (基准：30.0%，变化：-12.2%) -->
    <flow id="h2_E4_R" begin="3600" end="7200" from="E4" to="E5" vehsPerHour="178" />  <!-- 右转：28.7% (基准：25.0%，变化：+14.9%) -->

    <!-- 流量验证 -->
    <!-- 目标流量：2127 veh/h -->
    <!-- 生成流量：2125 veh/h -->
    <!-- 差值：2 veh/h (因四舍五入产生) -->

    <!-- =========================================================== -->
    <!-- 第3小时：高流时段 (扰动配置：进口道±100%，其他±20%) -->
    <!-- =========================================================== -->
    <!-- 基础流量：2880 veh/h (80%饱和度) -->
    <!-- 扰动后流量：2849 veh/h (乘数：0.990) -->
    <!-- 变化：-1.1% -->

    <!-- E1入口：550 veh/h (19.3%) -->
    <flow id="h3_E1_S" begin="7200" end="10800" from="E1" to="E7" vehsPerHour="255" />  <!-- 直行：46.4% (基准：45.0%，变化：+3.2%) -->
    <flow id="h3_E1_L" begin="7200" end="10800" from="E1" to="E8" vehsPerHour="149" />  <!-- 左转：27.1% (基准：30.0%，变化：-9.6%) -->
    <flow id="h3_E1_R" begin="7200" end="10800" from="E1" to="E6" vehsPerHour="145" />  <!-- 右转：26.4% (基准：25.0%，变化：+5.8%) -->

    <!-- E3入口：834 veh/h (29.3%) -->
    <flow id="h3_E3_S" begin="7200" end="10800" from="E3" to="E5" vehsPerHour="382" />  <!-- 直行：45.9% (基准：45.0%，变化：+2.0%) -->
    <flow id="h3_E3_L" begin="7200" end="10800" from="E3" to="E6" vehsPerHour="243" />  <!-- 左转：29.2% (基准：30.0%，变化：-2.7%) -->
    <flow id="h3_E3_R" begin="7200" end="10800" from="E3" to="E8" vehsPerHour="207" />  <!-- 右转：24.9% (基准：25.0%，变化：-0.3%) -->

    <!-- E2入口：874 veh/h (30.7%) -->
    <flow id="h3_E2_S" begin="7200" end="10800" from="E2" to="E8" vehsPerHour="389" />  <!-- 直行：44.6% (基准：45.0%，变化：-0.9%) -->
    <flow id="h3_E2_L" begin="7200" end="10800" from="E2" to="E5" vehsPerHour="255" />  <!-- 左转：29.2% (基准：30.0%，变化：-2.7%) -->
    <flow id="h3_E2_R" begin="7200" end="10800" from="E2" to="E7" vehsPerHour="228" />  <!-- 右转：26.2% (基准：25.0%，变化：+4.8%) -->

    <!-- E4入口：589 veh/h (20.7%) -->
    <flow id="h3_E4_S" begin="7200" end="10800" from="E4" to="E6" vehsPerHour="285" />  <!-- 直行：48.5% (基准：45.0%，变化：+7.9%) -->
    <flow id="h3_E4_L" begin="7200" end="10800" from="E4" to="E7" vehsPerHour="158" />  <!-- 左转：26.9% (基准：30.0%，变化：-10.2%) -->
    <flow id="h3_E4_R" begin="7200" end="10800" from="E4" to="E5" vehsPerHour="144" />  <!-- 右转：24.5% (基准：25.0%，变化：-1.9%) -->

    <!-- 流量验证 -->
    <!-- 目标流量：2849 veh/h -->
    <!-- 生成流量：2847 veh/h -->
    <!-- 差值：2 veh/h (因四舍五入产生) -->

</routes>