<?xml version="1.0" encoding="UTF-8"?>

<routes xmlns:xsi="http://www.w3.org/2001/XMLSchema-instance"
        xsi:noNamespaceSchemaLocation="http://sumo.dlr.de/xsd/routes_file.xsd">

    <!-- =========================================================== -->
    <!-- 交通流量配置文件 (进口道比例扰动±100%，转向和流量扰动±20%) -->
    <!-- 扰动类型：时段总流量、进口道比例、转向比例 -->
    <!-- 随机种子：999 -->
    <!-- =========================================================== -->

    <!-- =========================================================== -->
    <!-- 第1小时：低流时段 (扰动配置：进口道±100%，其他±20%) -->
    <!-- =========================================================== -->
    <!-- 基础流量：1080 veh/h (30%饱和度) -->
    <!-- 扰动后流量：1113 veh/h (乘数：1.031) -->
    <!-- 变化：+3.1% -->

    <!-- E1入口：425 veh/h (38.2%) -->
    <flow id="h1_E1_S" begin="0" end="3600" from="E1" to="E7" vehsPerHour="181" />  <!-- 直行：42.7% (基准：45.0%，变化：-5.1%) -->
    <flow id="h1_E1_L" begin="0" end="3600" from="E1" to="E8" vehsPerHour="158" />  <!-- 左转：37.3% (基准：30.0%，变化：+24.5%) -->
    <flow id="h1_E1_R" begin="0" end="3600" from="E1" to="E6" vehsPerHour="84" />  <!-- 右转：20.0% (基准：25.0%，变化：-20.2%) -->

    <!-- E3入口：73 veh/h (6.6%) -->
    <flow id="h1_E3_S" begin="0" end="3600" from="E3" to="E5" vehsPerHour="35" />  <!-- 直行：48.9% (基准：45.0%，变化：+8.7%) -->
    <flow id="h1_E3_L" begin="0" end="3600" from="E3" to="E6" vehsPerHour="20" />  <!-- 左转：28.0% (基准：30.0%，变化：-6.6%) -->
    <flow id="h1_E3_R" begin="0" end="3600" from="E3" to="E8" vehsPerHour="16" />  <!-- 右转：23.1% (基准：25.0%，变化：-7.7%) -->

    <!-- E2入口：136 veh/h (12.2%) -->
    <flow id="h1_E2_S" begin="0" end="3600" from="E2" to="E8" vehsPerHour="62" />  <!-- 直行：45.8% (基准：45.0%，变化：+1.7%) -->
    <flow id="h1_E2_L" begin="0" end="3600" from="E2" to="E5" vehsPerHour="48" />  <!-- 左转：35.3% (基准：30.0%，变化：+17.7%) -->
    <flow id="h1_E2_R" begin="0" end="3600" from="E2" to="E7" vehsPerHour="25" />  <!-- 右转：18.9% (基准：25.0%，变化：-24.4%) -->

    <!-- E4入口：478 veh/h (43.0%) -->
    <flow id="h1_E4_S" begin="0" end="3600" from="E4" to="E6" vehsPerHour="233" />  <!-- 直行：48.9% (基准：45.0%，变化：+8.6%) -->
    <flow id="h1_E4_L" begin="0" end="3600" from="E4" to="E7" vehsPerHour="148" />  <!-- 左转：31.0% (基准：30.0%，变化：+3.2%) -->
    <flow id="h1_E4_R" begin="0" end="3600" from="E4" to="E5" vehsPerHour="96" />  <!-- 右转：20.2% (基准：25.0%，变化：-19.4%) -->

    <!-- 流量验证 -->
    <!-- 目标流量：1113 veh/h -->
    <!-- 生成流量：1112 veh/h -->
    <!-- 差值：1 veh/h (因四舍五入产生) -->

    <!-- =========================================================== -->
    <!-- 第2小时：中流时段 (扰动配置：进口道±100%，其他±20%) -->
    <!-- =========================================================== -->
    <!-- 基础流量：2160 veh/h (60%饱和度) -->
    <!-- 扰动后流量：2097 veh/h (乘数：0.971) -->
    <!-- 变化：-2.9% -->

    <!-- E1入口：499 veh/h (23.8%) -->
    <flow id="h2_E1_S" begin="3600" end="7200" from="E1" to="E7" vehsPerHour="235" />  <!-- 直行：47.3% (基准：45.0%，变化：+5.1%) -->
    <flow id="h2_E1_L" begin="3600" end="7200" from="E1" to="E8" vehsPerHour="141" />  <!-- 左转：28.5% (基准：30.0%，变化：-5.2%) -->
    <flow id="h2_E1_R" begin="3600" end="7200" from="E1" to="E6" vehsPerHour="121" />  <!-- 右转：24.3% (基准：25.0%，变化：-2.9%) -->

    <!-- E3入口：607 veh/h (29.0%) -->
    <flow id="h2_E3_S" begin="3600" end="7200" from="E3" to="E5" vehsPerHour="284" />  <!-- 直行：46.8% (基准：45.0%，变化：+4.1%) -->
    <flow id="h2_E3_L" begin="3600" end="7200" from="E3" to="E6" vehsPerHour="183" />  <!-- 左转：30.3% (基准：30.0%，变化：+1.0%) -->
    <flow id="h2_E3_R" begin="3600" end="7200" from="E3" to="E8" vehsPerHour="138" />  <!-- 右转：22.9% (基准：25.0%，变化：-8.5%) -->

    <!-- E2入口：286 veh/h (13.6%) -->
    <flow id="h2_E2_S" begin="3600" end="7200" from="E2" to="E8" vehsPerHour="127" />  <!-- 直行：44.6% (基准：45.0%，变化：-0.9%) -->
    <flow id="h2_E2_L" begin="3600" end="7200" from="E2" to="E5" vehsPerHour="88" />  <!-- 左转：30.9% (基准：30.0%，变化：+2.9%) -->
    <flow id="h2_E2_R" begin="3600" end="7200" from="E2" to="E7" vehsPerHour="70" />  <!-- 右转：24.5% (基准：25.0%，变化：-1.9%) -->

    <!-- E4入口：703 veh/h (33.5%) -->
    <flow id="h2_E4_S" begin="3600" end="7200" from="E4" to="E6" vehsPerHour="333" />  <!-- 直行：47.5% (基准：45.0%，变化：+5.6%) -->
    <flow id="h2_E4_L" begin="3600" end="7200" from="E4" to="E7" vehsPerHour="206" />  <!-- 左转：29.3% (基准：30.0%，变化：-2.3%) -->
    <flow id="h2_E4_R" begin="3600" end="7200" from="E4" to="E5" vehsPerHour="162" />  <!-- 右转：23.2% (基准：25.0%，变化：-7.3%) -->

    <!-- 流量验证 -->
    <!-- 目标流量：2097 veh/h -->
    <!-- 生成流量：2095 veh/h -->
    <!-- 差值：2 veh/h (因四舍五入产生) -->

    <!-- =========================================================== -->
    <!-- 第3小时：高流时段 (扰动配置：进口道±100%，其他±20%) -->
    <!-- =========================================================== -->
    <!-- 基础流量：2880 veh/h (80%饱和度) -->
    <!-- 扰动后流量：2768 veh/h (乘数：0.961) -->
    <!-- 变化：-3.9% -->

    <!-- E1入口：857 veh/h (31.0%) -->
    <flow id="h3_E1_S" begin="7200" end="10800" from="E1" to="E7" vehsPerHour="373" />  <!-- 直行：43.5% (基准：45.0%，变化：-3.3%) -->
    <flow id="h3_E1_L" begin="7200" end="10800" from="E1" to="E8" vehsPerHour="265" />  <!-- 左转：31.0% (基准：30.0%，变化：+3.4%) -->
    <flow id="h3_E1_R" begin="7200" end="10800" from="E1" to="E6" vehsPerHour="218" />  <!-- 右转：25.4% (基准：25.0%，变化：+1.8%) -->

    <!-- E3入口：717 veh/h (25.9%) -->
    <flow id="h3_E3_S" begin="7200" end="10800" from="E3" to="E5" vehsPerHour="323" />  <!-- 直行：45.1% (基准：45.0%，变化：+0.1%) -->
    <flow id="h3_E3_L" begin="7200" end="10800" from="E3" to="E6" vehsPerHour="204" />  <!-- 左转：28.5% (基准：30.0%，变化：-5.0%) -->
    <flow id="h3_E3_R" begin="7200" end="10800" from="E3" to="E8" vehsPerHour="189" />  <!-- 右转：26.5% (基准：25.0%，变化：+5.8%) -->

    <!-- E2入口：536 veh/h (19.4%) -->
    <flow id="h3_E2_S" begin="7200" end="10800" from="E2" to="E8" vehsPerHour="252" />  <!-- 直行：47.1% (基准：45.0%，变化：+4.7%) -->
    <flow id="h3_E2_L" begin="7200" end="10800" from="E2" to="E5" vehsPerHour="170" />  <!-- 左转：31.9% (基准：30.0%，变化：+6.3%) -->
    <flow id="h3_E2_R" begin="7200" end="10800" from="E2" to="E7" vehsPerHour="112" />  <!-- 右转：21.0% (基准：25.0%，变化：-16.1%) -->

    <!-- E4入口：656 veh/h (23.7%) -->
    <flow id="h3_E4_S" begin="7200" end="10800" from="E4" to="E6" vehsPerHour="317" />  <!-- 直行：48.4% (基准：45.0%，变化：+7.5%) -->
    <flow id="h3_E4_L" begin="7200" end="10800" from="E4" to="E7" vehsPerHour="165" />  <!-- 左转：25.3% (基准：30.0%，变化：-15.7%) -->
    <flow id="h3_E4_R" begin="7200" end="10800" from="E4" to="E5" vehsPerHour="172" />  <!-- 右转：26.3% (基准：25.0%，变化：+5.3%) -->

    <!-- 流量验证 -->
    <!-- 目标流量：2768 veh/h -->
    <!-- 生成流量：2766 veh/h -->
    <!-- 差值：2 veh/h (因四舍五入产生) -->

</routes>