<?xml version="1.0" encoding="UTF-8"?>

<net version="1.9" junctionCornerDetail="5" limitTurnSpeed="5.50" xmlns:xsi="http://www.w3.org/2001/XMLSchema-instance" xsi:noNamespaceSchemaLocation="http://sumo.dlr.de/xsd/net_file.xsd">

    <location netOffset="0.00,0.00" convBoundary="-500.00,-500.00,500.00,500.00" origBoundary="-10000000000.00,-10000000000.00,10000000000.00,10000000000.00" projParameter="!"/>

    <edge id=":J0_0" function="internal">
        <lane id=":J0_0_0" index="0" speed="6.51" length="9.03" shape="-8.00,13.60 -8.35,11.15 -9.40,9.40 -11.15,8.35 -13.60,8.00"/>
    </edge>
    <edge id=":J0_1" function="internal">
        <lane id=":J0_1_0" index="0" speed="13.89" length="27.20" shape="-4.80,13.60 -4.80,-13.60"/>
    </edge>
    <edge id=":J0_2" function="internal">
        <lane id=":J0_2_0" index="0" speed="10.36" length="24.51" shape="-1.60,13.60 -0.65,6.95 2.20,2.20 6.95,-0.65 13.60,-1.60"/>
    </edge>
    <edge id=":J0_3" function="internal">
        <lane id=":J0_3_0" index="0" speed="6.51" length="9.03" shape="13.60,8.00 11.15,8.35 9.40,9.40 8.35,11.15 8.00,13.60"/>
    </edge>
    <edge id=":J0_4" function="internal">
        <lane id=":J0_4_0" index="0" speed="13.89" length="27.20" shape="13.60,4.80 -13.60,4.80"/>
    </edge>
    <edge id=":J0_5" function="internal">
        <lane id=":J0_5_0" index="0" speed="10.36" length="24.51" shape="13.60,1.60 6.95,0.65 2.20,-2.20 -0.65,-6.95 -1.60,-13.60"/>
    </edge>
    <edge id=":J0_6" function="internal">
        <lane id=":J0_6_0" index="0" speed="6.51" length="9.03" shape="8.00,-13.60 8.35,-11.15 9.40,-9.40 11.15,-8.35 13.60,-8.00"/>
    </edge>
    <edge id=":J0_7" function="internal">
        <lane id=":J0_7_0" index="0" speed="13.89" length="27.20" shape="4.80,-13.60 4.80,13.60"/>
    </edge>
    <edge id=":J0_8" function="internal">
        <lane id=":J0_8_0" index="0" speed="10.36" length="24.51" shape="1.60,-13.60 0.65,-6.95 -2.20,-2.20 -6.95,0.65 -13.60,1.60"/>
    </edge>
    <edge id=":J0_9" function="internal">
        <lane id=":J0_9_0" index="0" speed="6.51" length="9.03" shape="-13.60,-8.00 -11.15,-8.35 -9.40,-9.40 -8.35,-11.15 -8.00,-13.60"/>
    </edge>
    <edge id=":J0_10" function="internal">
        <lane id=":J0_10_0" index="0" speed="13.89" length="27.20" shape="-13.60,-4.80 13.60,-4.80"/>
    </edge>
    <edge id=":J0_11" function="internal">
        <lane id=":J0_11_0" index="0" speed="10.36" length="24.51" shape="-13.60,-1.60 -6.95,-0.65 -2.20,2.20 0.65,6.95 1.60,13.60"/>
    </edge>

    <edge id="E1" from="J1" to="J0" priority="-1">
        <lane id="E1_0" index="0" speed="13.89" length="486.40" shape="500.00,8.00 13.60,8.00"/>
        <lane id="E1_1" index="1" speed="13.89" length="486.40" shape="500.00,4.80 13.60,4.80"/>
        <lane id="E1_2" index="2" speed="13.89" length="486.40" shape="500.00,1.60 13.60,1.60"/>
    </edge>
    <edge id="E2" from="J2" to="J0" priority="-1">
        <lane id="E2_0" index="0" speed="13.89" length="486.40" shape="-8.00,500.00 -8.00,13.60"/>
        <lane id="E2_1" index="1" speed="13.89" length="486.40" shape="-4.80,500.00 -4.80,13.60"/>
        <lane id="E2_2" index="2" speed="13.89" length="486.40" shape="-1.60,500.00 -1.60,13.60"/>
    </edge>
    <edge id="E3" from="J3" to="J0" priority="-1">
        <lane id="E3_0" index="0" speed="13.89" length="486.40" shape="-500.00,-8.00 -13.60,-8.00"/>
        <lane id="E3_1" index="1" speed="13.89" length="486.40" shape="-500.00,-4.80 -13.60,-4.80"/>
        <lane id="E3_2" index="2" speed="13.89" length="486.40" shape="-500.00,-1.60 -13.60,-1.60"/>
    </edge>
    <edge id="E4" from="J4" to="J0" priority="-1">
        <lane id="E4_0" index="0" speed="13.89" length="486.40" shape="8.00,-500.00 8.00,-13.60"/>
        <lane id="E4_1" index="1" speed="13.89" length="486.40" shape="4.80,-500.00 4.80,-13.60"/>
        <lane id="E4_2" index="2" speed="13.89" length="486.40" shape="1.60,-500.00 1.60,-13.60"/>
    </edge>
    <edge id="E5" from="J0" to="J1" priority="-1">
        <lane id="E5_0" index="0" speed="13.89" length="486.40" shape="13.60,-8.00 500.00,-8.00"/>
        <lane id="E5_1" index="1" speed="13.89" length="486.40" shape="13.60,-4.80 500.00,-4.80"/>
        <lane id="E5_2" index="2" speed="13.89" length="486.40" shape="13.60,-1.60 500.00,-1.60"/>
    </edge>
    <edge id="E6" from="J0" to="J2" priority="-1">
        <lane id="E6_0" index="0" speed="13.89" length="486.40" shape="8.00,13.60 8.00,500.00"/>
        <lane id="E6_1" index="1" speed="13.89" length="486.40" shape="4.80,13.60 4.80,500.00"/>
        <lane id="E6_2" index="2" speed="13.89" length="486.40" shape="1.60,13.60 1.60,500.00"/>
    </edge>
    <edge id="E7" from="J0" to="J3" priority="-1">
        <lane id="E7_0" index="0" speed="13.89" length="486.40" shape="-13.60,8.00 -500.00,8.00"/>
        <lane id="E7_1" index="1" speed="13.89" length="486.40" shape="-13.60,4.80 -500.00,4.80"/>
        <lane id="E7_2" index="2" speed="13.89" length="486.40" shape="-13.60,1.60 -500.00,1.60"/>
    </edge>
    <edge id="E8" from="J0" to="J4" priority="-1">
        <lane id="E8_0" index="0" speed="13.89" length="486.40" shape="-8.00,-13.60 -8.00,-500.00"/>
        <lane id="E8_1" index="1" speed="13.89" length="486.40" shape="-4.80,-13.60 -4.80,-500.00"/>
        <lane id="E8_2" index="2" speed="13.89" length="486.40" shape="-1.60,-13.60 -1.60,-500.00"/>
    </edge>

    <tlLogic id="J0" type="static" programID="0" offset="0">
        <phase duration="30" state="grrgGrgrrgGr"/>
        <phase duration="3"  state="grrgyrgrrgyr"/>
        <phase duration="30" state="gGrgrrgGrgrr"/>
        <phase duration="3"  state="gyrgrrgyrgrr"/>
        <phase duration="30" state="grrgrGgrrgrG"/>
        <phase duration="3"  state="grrgrygrrgry"/>
        <phase duration="30" state="grGgrrgrGgrr"/>
        <phase duration="3"  state="grygrrgrygrr"/>
        <phase duration="30" state="grrgrrgrrgGG"/>
        <phase duration="3"  state="grrgrrgrrgyy"/>
        <phase duration="30" state="grrgGGgrrgrr"/>
        <phase duration="3"  state="grrgyygrrgrr"/>
        <phase duration="30" state="grrgrrgGGgrr"/>
        <phase duration="3"  state="grrgrrgyygrr"/>
        <phase duration="30" state="gGGgrrgrrgrr"/>
        <phase duration="3"  state="gyygrrgrrgrr"/>
    </tlLogic>

    <junction id="J0" type="traffic_light" x="0.00" y="0.00" incLanes="E2_0 E2_1 E2_2 E1_0 E1_1 E1_2 E4_0 E4_1 E4_2 E3_0 E3_1 E3_2" intLanes=":J0_0_0 :J0_1_0 :J0_2_0 :J0_3_0 :J0_4_0 :J0_5_0 :J0_6_0 :J0_7_0 :J0_8_0 :J0_9_0 :J0_10_0 :J0_11_0" shape="-9.60,13.60 9.60,13.60 10.04,11.38 10.60,10.60 11.38,10.04 12.38,9.71 13.60,9.60 13.60,-9.60 11.38,-10.04 10.60,-10.60 10.04,-11.38 9.71,-12.38 9.60,-13.60 -9.60,-13.60 -10.04,-11.38 -10.60,-10.60 -11.38,-10.04 -12.38,-9.71 -13.60,-9.60 -13.60,9.60 -11.38,10.04 -10.60,10.60 -10.04,11.38 -9.71,12.38">
        <request index="0"  response="000000000000" foes="000000000000" cont="0"/>
        <request index="1"  response="000000000000" foes="110100010000" cont="0"/>
        <request index="2"  response="000010000000" foes="100010110000" cont="0"/>
        <request index="3"  response="000000000000" foes="000000000000" cont="0"/>
        <request index="4"  response="000010000110" foes="100010000110" cont="0"/>
        <request index="5"  response="010110000100" foes="010110000100" cont="0"/>
        <request index="6"  response="000000000000" foes="000000000000" cont="0"/>
        <request index="7"  response="000000000000" foes="010000110100" cont="0"/>
        <request index="8"  response="000000000010" foes="110000100010" cont="0"/>
        <request index="9"  response="000000000000" foes="000000000000" cont="0"/>
        <request index="10" response="000110000010" foes="000110100010" cont="0"/>
        <request index="11" response="000100010110" foes="000100010110" cont="0"/>
    </junction>
    <junction id="J1" type="dead_end" x="500.00" y="0.00" incLanes="E5_0 E5_1 E5_2" intLanes="" shape="500.00,0.00 500.00,-9.60 500.00,0.00"/>
    <junction id="J2" type="dead_end" x="0.00" y="500.00" incLanes="E6_0 E6_1 E6_2" intLanes="" shape="0.00,500.00 9.60,500.00 0.00,500.00"/>
    <junction id="J3" type="dead_end" x="-500.00" y="0.00" incLanes="E7_0 E7_1 E7_2" intLanes="" shape="-500.00,0.00 -500.00,9.60 -500.00,0.00"/>
    <junction id="J4" type="dead_end" x="0.00" y="-500.00" incLanes="E8_0 E8_1 E8_2" intLanes="" shape="0.00,-500.00 -9.60,-500.00 0.00,-500.00"/>

    <connection from="E1" to="E6" fromLane="0" toLane="0" via=":J0_3_0" tl="J0" linkIndex="3" dir="r" state="O"/>
    <connection from="E1" to="E7" fromLane="1" toLane="1" via=":J0_4_0" tl="J0" linkIndex="4" dir="s" state="o"/>
    <connection from="E1" to="E8" fromLane="2" toLane="2" via=":J0_5_0" tl="J0" linkIndex="5" dir="l" state="o"/>
    <connection from="E2" to="E7" fromLane="0" toLane="0" via=":J0_0_0" tl="J0" linkIndex="0" dir="r" state="O"/>
    <connection from="E2" to="E8" fromLane="1" toLane="1" via=":J0_1_0" tl="J0" linkIndex="1" dir="s" state="O"/>
    <connection from="E2" to="E5" fromLane="2" toLane="2" via=":J0_2_0" tl="J0" linkIndex="2" dir="l" state="o"/>
    <connection from="E3" to="E8" fromLane="0" toLane="0" via=":J0_9_0" tl="J0" linkIndex="9" dir="r" state="O"/>
    <connection from="E3" to="E5" fromLane="1" toLane="1" via=":J0_10_0" tl="J0" linkIndex="10" dir="s" state="o"/>
    <connection from="E3" to="E6" fromLane="2" toLane="2" via=":J0_11_0" tl="J0" linkIndex="11" dir="l" state="o"/>
    <connection from="E4" to="E5" fromLane="0" toLane="0" via=":J0_6_0" tl="J0" linkIndex="6" dir="r" state="O"/>
    <connection from="E4" to="E6" fromLane="1" toLane="1" via=":J0_7_0" tl="J0" linkIndex="7" dir="s" state="O"/>
    <connection from="E4" to="E7" fromLane="2" toLane="2" via=":J0_8_0" tl="J0" linkIndex="8" dir="l" state="o"/>

    <connection from=":J0_0" to="E7" fromLane="0" toLane="0" dir="r" state="M"/>
    <connection from=":J0_1" to="E8" fromLane="0" toLane="1" dir="s" state="M"/>
    <connection from=":J0_2" to="E5" fromLane="0" toLane="2" dir="l" state="M"/>
    <connection from=":J0_3" to="E6" fromLane="0" toLane="0" dir="r" state="M"/>
    <connection from=":J0_4" to="E7" fromLane="0" toLane="1" dir="s" state="M"/>
    <connection from=":J0_5" to="E8" fromLane="0" toLane="2" dir="l" state="M"/>
    <connection from=":J0_6" to="E5" fromLane="0" toLane="0" dir="r" state="M"/>
    <connection from=":J0_7" to="E6" fromLane="0" toLane="1" dir="s" state="M"/>
    <connection from=":J0_8" to="E7" fromLane="0" toLane="2" dir="l" state="M"/>
    <connection from=":J0_9" to="E8" fromLane="0" toLane="0" dir="r" state="M"/>
    <connection from=":J0_10" to="E5" fromLane="0" toLane="1" dir="s" state="M"/>
    <connection from=":J0_11" to="E6" fromLane="0" toLane="2" dir="l" state="M"/>

</net>
